Version 4
SHEET 1 880 680
WIRE 48 160 48 96
WIRE 160 176 144 176
WIRE -64 192 -80 192
WIRE -16 192 -64 192
WIRE 144 192 144 176
WIRE 144 192 96 192
WIRE -64 224 -64 192
WIRE -64 224 -112 224
WIRE 144 224 144 192
WIRE -112 240 -112 224
WIRE 48 256 48 224
WIRE 144 320 144 288
WIRE -112 352 -112 320
FLAG -80 192 In
FLAG 160 176 Out
FLAG -112 352 0
FLAG 48 256 0
FLAG 48 96 VDD
FLAG 144 320 0
SYMBOL voltage -112 224 R0
WINDOW 123 0 0 Left 2
WINDOW 39 0 0 Left 2
SYMATTR InstName Vin
SYMATTR Value PULSE(0 1 2n 10p)
SYMBOL invert 16 192 R0
SYMATTR InstName X1
SYMBOL cap 128 224 R0
SYMATTR InstName C1
SYMATTR Value 200f
TEXT -64 344 Left 2 !.include cmosedu_models.txt\nVDD VDD 0 DC 1
TEXT -56 392 Left 2 !.tran 0 5n 0 10p
