Version 4
SHEET 1 1016 680
WIRE 160 80 160 16
WIRE 80 112 48 112
WIRE 240 112 224 112
WIRE 432 112 432 96
WIRE 432 112 240 112
WIRE 48 176 48 112
WIRE 160 192 160 160
WIRE 48 288 48 256
FLAG 48 112 In
FLAG 432 96 Out
FLAG 48 288 0
FLAG 160 192 0
FLAG 160 16 VDD
SYMBOL voltage 48 160 R0
SYMATTR InstName Vin
SYMATTR Value 0
SYMBOL my_inverter 112 112 R0
SYMATTR InstName X1
TEXT 40 344 Left 2 !.inc C:\\Users\\ADMIN\\Desktop\\LTSpice\\my_inverter.log
TEXT 14 364 Left 2 !.tran 10
