Version 4
SHEET 1 1160 680
WIRE 976 -16 -32 -16
WIRE -32 64 -32 -16
WIRE -32 64 -48 64
WIRE -48 112 -48 64
WIRE 848 240 848 112
WIRE 848 240 -48 240
WIRE -48 320 -48 240
WIRE 976 320 976 -16
WIRE 976 320 960 320
WIRE 992 320 976 320
FLAG 992 320 Osc_out
IOPIN 992 320 Out
SYMBOL invert -16 112 R0
SYMATTR InstName X1
SYMBOL invert 96 112 R0
SYMATTR InstName X2
SYMBOL invert 208 112 R0
SYMATTR InstName X3
SYMBOL invert 320 112 R0
SYMATTR InstName X4
SYMBOL invert 432 112 R0
SYMATTR InstName X5
SYMBOL invert 544 112 R0
SYMATTR InstName X6
SYMBOL invert 656 112 R0
SYMATTR InstName X7
SYMBOL invert 768 112 R0
SYMATTR InstName X8
SYMBOL invert -16 320 R0
SYMATTR InstName X9
SYMBOL invert 96 320 R0
SYMATTR InstName X10
SYMBOL invert 208 320 R0
SYMATTR InstName X11
SYMBOL invert 320 320 R0
SYMATTR InstName X12
SYMBOL invert 432 320 R0
SYMATTR InstName X13
SYMBOL invert 544 320 R0
SYMATTR InstName X14
SYMBOL invert 656 320 R0
SYMATTR InstName X15
SYMBOL invert 768 320 R0
SYMATTR InstName X16
SYMBOL invert 880 320 R0
SYMATTR InstName X17
TEXT 784 0 Left 2 !VDD VDD 0 DC 1\n.ic v(osc_out)=1\n.tran 10p 20n UIC
